 PDE 2010  9  3 16 35 47.80 -43.5300  171.8100  12.0 6.4 7.3 SOUTH ISLAND, NEW ZEALAND
event name:     C201009031635A
time shift:     10.1000
half duration:   7.5000
latitude:      -43.5600
longitude:     172.1200
depth:          12.0000
Mrr:       3.850000e+25
Mtt:       8.000000e+23
Mpp:      -3.920000e+25
Mrt:       4.910000e+25
Mrp:       1.000000e+24
Mtp:      -3.600000e+26
